
**** 04/12/22 19:58:26 ******* PSpice 17.4.0 (Nov 2018) ******* ID# 0 ********

 ** Profile: "v3-v3"  [ E:\sdu-courses\2022-Spring\EDB2\simulation\ucc28c42_v3\ucc28c42_v3-pspicefiles\v3\v3.sim ] 


 ****     CIRCUIT DESCRIPTION


******************************************************************************




** Creating circuit file "v3.cir" 
** WARNING: THIS AUTOMATICALLY GENERATED FILE MAY BE OVERWRITTEN BY SUBSEQUENT SIMULATIONS

*Libraries: 
* Profile Libraries :
* Local Libraries :
.LIB "../../../libs/dflz18.lib" 
.LIB "../../../libs/ncp1252.lib" 
.LIB "../../../libs/infineon_simulation model_coolmos_c7_mosfet_650v_spice.lib" 
.LIB "../../../ucc28c42.lib" 
* From [PSPICE NETLIST] section of C:\Users\Dinh-Tuyen Le\cdssetup\OrCAD_PSpice\17.4.0\PSpice.ini file:
.lib "nom.lib" 

*Analysis directives: 
.TRAN  0 20m 0 {SCHEDULE(0,1000ns,6m,20ns)} SKIPBP 
.OPTIONS STEPGMIN
.OPTIONS ADVCONV
.OPTIONS ABSTOL= 1u
.OPTIONS CHGTOL= 0.1p
.OPTIONS GMIN= 1.0E-10
.OPTIONS ITL4= 5000
.OPTIONS RELTOL= 0.01
.OPTIONS VNTOL= 1m
.PROBE64 V(*) I(*) D(*) 
.INC "..\v3.net" 



**** INCLUDING v3.net ****
* source UCC28C42_V3
C_Cvref         N16739993 0  1u IC=17 
R_R_CSF         CS N16740487  3.8k  
R_R_COMPZ         N16794799 N16783514  88.7k  
Q_Q3         N16739993 N16740021 N167402430 Q2N2222A/ZTX 
R_Rstart2         N16739635 N167412151  210k  
R_R_bleeder         0 N16740981  10k  
R_R_COMPp         N16795961 N16739891  10k  
C_Cct         N16740021 0  1000p  
R_ESR_Ls         N16799559 N16810033  0.5  
X_U32         N16783475 N16783514 N16739993 N16795738 SFH615A_4 
V_V2         N16776491 N16788555  AC 1
+SIN 0 220 50 0 0 0
R_Rrt         N16739993 N16740021  15.4k  
X_Q2         0 N16796480 N16803483 awb2n2907 PARAMS:                           
+                  
C_C_COMPp         N16739891 N16795961  10n  
R_R_TLbias         N16783514 N16739745  1k  
X_Qsw         N16740517 N16740981 N16740487 IPA65R225C7_L0
X_U8         N16739891 N16795961 CS N16740021 0 N16739909 N16739635 N16739993
+  UCC28C42_STEADY
R_R_OPTO         N16795738 0  1k  
C_Css         N16796480 0  470pF  
X_U10         N16776491 0 N16788555 N16740667 KBL06
R_ESR_Lm         N16799264 N16740667  0.5  
R_R_FBG         N16795738 N16795961  4.99k  
R_Rss         N16803483 N16796480  13.7k  
C_C_SNUB         N16792529 N16740667  10n  
C_C_CSF         CS 0  100pF  
C_C_COMPZ         N16794799 N16783477  10n IC=9 
R_R_CS         0 N16740487  0.75  
C_C_VDD         N16739635 0  120u IC=17 
D_D8         N16805113 N16739635 D1N4148 
D_D_CLAMP         N16740517 N16792529 DI_S1K 
R_Rstart1         N167412151 N16740667  210k  
R_Rramp         N167400091 CS  24.9k  
R_RLED         N16783475 N16739745  1.3k  
C_C_OUT         N16739745 0  2200u  
C_Cin         0 N16740667  180u  TC=0,0 
X_U36         N16783477 0 N16783514 TL431/TI
R_R_FBB         0 N16783477  2.49k  
R_R_FBU         N16783477 N16739745  9.53k  
R_ESR_La         N16799425 N16797419  0.5  
R_R24         0 N16739745  2.8  
R_R_G         N16739909 N16740981  10  
R_R_SNUB         N16740667 N16792529  50k  
R_R_VDD         N16797419 N16805113  22  
C_Cramp         N167402430 N167400091  10n  
D_D_OUT         N16799559 N16739745 ES3B 
C_C_VDDbp         N16739635 0  0.1u IC=17 
X_Dz         0 N16739635 DI_DFLZ18
X_Dzz         0 0 DI_SMAZ16
L_Lm1         N16799264 N16740517  1.5m  
X_U112         N16799264 N16740517 0 N16810033 N16799425 0 XFMR2 PARAMS: 
+  RATIO1=0.1 RATIO2=0.1

**** RESUMING v3.cir ****
.END

**** 04/12/22 19:58:26 ******* PSpice 17.4.0 (Nov 2018) ******* ID# 0 ********

 ** Profile: "v3-v3"  [ E:\sdu-courses\2022-Spring\EDB2\simulation\ucc28c42_v3\ucc28c42_v3-pspicefiles\v3\v3.sim ] 


 ****     Diode MODEL PARAMETERS


******************************************************************************




               D1N4148         DI_S1K          ES3B            X_U32.LED       
          IS    2.682000E-09    7.310000E-18    7.270000E-12    4.940000E-21 
           N    1.836            .775            .7             1.01         
         ISR    1.565000E-09                                                 
         IKF     .04417                                                      
          BV  100             800             100                            
         IBV  100.000000E-06    5.000000E-06   10.000000E-06                 
          RS     .5664           .042            .0224          3.830000E-03 
          TT   11.540000E-09    4.320000E-06   36.000000E-09    1.000000E-09 
         CJO    4.000000E-12   42.400000E-12   83.200000E-12   13.000000E-12 
          VJ     .5                                                          
           M     .3333           .333            .333            .333        


               X_Qsw.Dbt       X_Qsw.DBODY     X_Qsw.DGD       X_U8.D2         
          IS   10.000000E-15  554.480000E-09   10.000000E-15   10.000000E-15 
           N                    1.95                                         
          BV  650                                                            
          RS                   28.000000E-06                                 
          TT                  250.000000E-09                                 
         CJO    1.640000E-09                  230.000000E-12                 
          VJ     .5                              .5                          
           M     .9                              .55                         
          EG                    1.12                                         


               X_U10.DKBL06    X_U36.DMOD1     X_U36.DMOD2     X_Dz.DF         
          IS    1.323100E-06   10.000000E-15   10.000000E-15   22.900000E-12 
           N    1.2911                                          1.1          
         ISR   10.010000E-21                                                 
          NR    4.995                                                        
         IKF    1.9588                                                       
          BV  600                                                            
         IBV   10.000000E-06                                                 
          RS    3.662300E-03     .3             1.000000E-06     .689        
          TT   27.200000E-09                                   50.100000E-09 
         CJO   48.500000E-12                                  332.000000E-12 
          VJ     .48                                                         
           M     .32                                             .33         
          EG     .72                                                         


               X_Dz.DR         X_Dzz.DF        X_Dzz.DR        
          IS    4.580000E-15   25.700000E-12    5.150000E-15 
           N    3               1.1             1.49         
          RS    2.89             .756            .46         
          TT                   50.100000E-09                 
         CJO                  377.000000E-12                 
           M                     .33                         


               X_U8.XAMP.DCLAMP                X_U8.XAMP.DMOD  
          IS   10.000000E-15                   10.000000E-15 
          BV    6.8                                          
         IBV     .01                                         
          RS   10                                            


**** 04/12/22 19:58:26 ******* PSpice 17.4.0 (Nov 2018) ******* ID# 0 ********

 ** Profile: "v3-v3"  [ E:\sdu-courses\2022-Spring\EDB2\simulation\ucc28c42_v3\ucc28c42_v3-pspicefiles\v3\v3.sim ] 


 ****     BJT MODEL PARAMETERS


******************************************************************************




               Q2N2222A/ZTX    X_U32.MPSA06    X_Q2.model7     X_U8.XAMP.QPMOD 
               NPN             NPN             PNP             PNP             
       LEVEL    1               1               1               1            
          IS   30.611000E-15   20.300000E-15  140.810000E-15  100.000000E-18 
          EG                    1.12            1.11                         
          BF  220             343             150             217.647        
          NF    1.00124         1               1.073           1            
         VAF  104              25             125                            
         IKF     .52             .0396           .5                          
         ISE    7.500000E-15    1.190000E-12  964.740000E-15                 
          NE    1.41            2               1.74                         
          BR    4              10               4.12            1            
          NR    1.005           1               1.073           1            
         VAR   28              16             500                            
         IKR     .24             .075                                        
         ISC   10.652500E-12                                                 
          NC    1.3728                          1                            
         ISS    0               0               0               0            
          RB     .13           92.6             7                            
          RE     .22           23.1              .05            0            
          RC     .12            9.26             .8             0            
         CJE   27.010000E-12   20.700000E-12   29.000000E-12    0            
         VJE     .75            1.1             1                .75         
         MJE                     .5              .252                        
         CJC    9.120000E-12   10.000000E-12   16.000000E-12    0            
         VJC     .4089           .3             1.91             .75         
         MJC     .3508           .5              .633            .33         
        XCJC    1               1                .5             1            
         CJS    0               0               0               0            
         VJS     .75             .75             .7              .75         
         MJS                                     .5                          
          TF  325.000000E-12    4.000000E-09  636.620000E-12                 
         XTF                                   22.59                         
         VTF                                    2.96                         
         ITF                                     .61773                      
          TR  100.000000E-09  500.000000E-09   43.550000E-09                 
         XTB                    1.5             2.46                         
          KF    0               0               0               0            
          AF    1               1               1               1            
          CN    2.42            2.42            2.2             2.2          
           D     .87             .87             .52             .52         


**** 04/12/22 19:58:26 ******* PSpice 17.4.0 (Nov 2018) ******* ID# 0 ********

 ** Profile: "v3-v3"  [ E:\sdu-courses\2022-Spring\EDB2\simulation\ucc28c42_v3\ucc28c42_v3-pspicefiles\v3\v3.sim ] 


 ****     MOSFET MODEL PARAMETERS


******************************************************************************




               X_Qsw.DMOS      X_Qsw.MVDR      X_Qsw.sw        
               NMOS            NMOS            NMOS            
       LEVEL    3               1               1            
           L  100.000000E-06  100.000000E-06  100.000000E-06 
           W  100.000000E-06  100.000000E-06  100.000000E-06 
         VTO    4.2            -1               0            
          KP   13.91           27.87           10            
       GAMMA    0               0               0            
         PHI     .6              .6              .6          
      LAMBDA    0                .15            0            
          IS   10.000000E-15   10.000000E-15   10.000000E-15 
          JS    0               0               0            
          PB     .8              .8              .8          
        PBSW     .8              .8              .8          
          CJ    0               0               0            
        CJSW    0               0               0            
        CGSO    0               0               0            
        CGDO    0               0               0            
        CGBO    0               0               0            
         TOX  100.000000E-09    0               0            
          XJ    0               0               0            
       UCRIT   10.000000E+03   10.000000E+03   10.000000E+03 
        VMAX  150.000000E+03                                 
         ETA    0                                            
      DIOMOD    1               1               1            
         VFB    0               0               0            
        LETA    0               0               0            
        WETA    0               0               0            
          U0    0               0               0            
        TEMP    0               0               0            
         VDD    5               5               5            
       XPART    0               0               0            


               X_U8.XDRIVE._NMOS 
               NMOS            
       LEVEL    1            
           L  100.000000E-06 
           W  100.000000E-06 
         VTO    3            
          KP    1            
       GAMMA    0            
         PHI     .6          
      LAMBDA    0            
          RD   10            
          IS   10.000000E-15 
          JS    0            
          PB     .8          
        PBSW     .8          
          CJ  101.851000E-09 
        CJSW    0            
        CGSO    0            
        CGDO    0            
        CGBO    0            
        NSUB    1.000000E+09 
         TOX    0            
          XJ    0            
       UCRIT   10.000000E+03 
      DIOMOD    1            
         VFB    0            
        LETA    0            
        WETA    0            
          U0    0            
        TEMP    0            
         VDD    5            
       XPART    0            


               X_U8.XDRIVE._PMOS 
               PMOS            
       LEVEL    1            
           L  100.000000E-06 
           W  100.000000E-06 
         VTO   -3            
          KP    1            
       GAMMA    0            
         PHI     .6          
      LAMBDA    0            
          RD    5.5          
          IS   10.000000E-15 
          JS    0            
          PB     .8          
        PBSW     .8          
          CJ  101.851000E-09 
        CJSW    0            
        CGSO    0            
        CGDO    0            
        CGBO    0            
        NSUB    1.000000E+09 
         TOX    0            
          XJ    0            
       UCRIT   10.000000E+03 
      DIOMOD    1            
         VFB    0            
        LETA    0            
        WETA    0            
          U0    0            
        TEMP    0            
         VDD    5            
       XPART    0            


**** 04/12/22 19:58:26 ******* PSpice 17.4.0 (Nov 2018) ******* ID# 0 ********

 ** Profile: "v3-v3"  [ E:\sdu-courses\2022-Spring\EDB2\simulation\ucc28c42_v3\ucc28c42_v3-pspicefiles\v3\v3.sim ] 


 ****     Resistor MODEL PARAMETERS


******************************************************************************




               X_U36.RMOD      
           R    1            
         TC1   14.000000E-06 
         TC2   -1.000000E-06 


**** 04/12/22 19:58:26 ******* PSpice 17.4.0 (Nov 2018) ******* ID# 0 ********

 ** Profile: "v3-v3"  [ E:\sdu-courses\2022-Spring\EDB2\simulation\ucc28c42_v3\ucc28c42_v3-pspicefiles\v3\v3.sim ] 


 ****     Voltage Controlled Switch MODEL PARAMETERS


******************************************************************************




               X_U8.SOSC       X_U8.SUVLO      
         RON     .01             .01         
        ROFF    1.000000E+06   10.000000E+06 
          VT    1.45           11.75         
          VH     .95            2.75         
          TD    0               0            


WARNING(ORPSIM-16534): Using high values of ITL4 for Speed Level > 0 may increase total simulation job time.


          JOB CONCLUDED

**** 04/12/22 19:58:26 ******* PSpice 17.4.0 (Nov 2018) ******* ID# 0 ********

 ** Profile: "v3-v3"  [ E:\sdu-courses\2022-Spring\EDB2\simulation\ucc28c42_v3\ucc28c42_v3-pspicefiles\v3\v3.sim ] 


 ****     JOB STATISTICS SUMMARY


******************************************************************************



  License check-out time            =     3700.83
  Total job time (using Solver 1)   =      289.39
